
Vcc 25 0 +15
Vee 26 0 -15
vshort 2 22 0.00001
Q1 4 1 12 npn
Q2 4 2 13 npn
Q3 7 3 12 pnp
Q4 8 3 13 pnp
Q5 7 9 10 npn
Q6 8 9 11 npn
Q7 25 7 9 npn
Q8 4 4 25 pnp
Q9 3 4 25 pnp
R1 10 26 1000
R2 11 26 1000
R3 9 26 50000
Q13B 16 6 25 pnp
Q16 25 8 14 npn
Q17 16 14 15 npn
R8 15 26 100
R9 14 26 50000
Cc 8 16 30e-12
Q13A 17 6 25 pnp
Q14 25 17 23 npn
Q18 17 18 19 npn
Q19 17 17 18 npn
Q20 26 19 21 pnp
Q23 26 16 19 pnp
R6 22 23 27
R7 21 22 27
R10 18 19 40000

Q15 17 23 22 npn
Q21 20 21 22 pnp
Q22 8 20 26 npn
Q24 20 20 26 npn
R11 20 26 50000

Q10 3 5 24 npn
Q11 5 5 26 npn
Q12 6 6 25 pnp
R4 24 26 5000
R5 6 5 39000

vin 1 0 ac=0.0001

.ac DEC 100 10K 100MEG
.plot ac VM(22) VP(22)

.nodeset v(1)=0 v(2)=6.0e-04 v(3)=-1.4 v(4)=14 v(5)=-14
.nodeset v(6)=14 v(7)=-14 v(8)=-14 v(9)=-14 v(10)=-14.7 v(11)=-14.7 
.nodeset v(12)=-0.6 v(13)=-0.6 v(14)=-14 v(15)=-15 v(16)=-1 v(17)=0.8
.nodeset v(18)=0.05 v(19)=-0.8 v(20)=-15
.nodeset v(21)=-3e-03 v(22)=6e-04 v(23)=4.3e-03 v(24)=-15       

.end
